Build : mvn clean compile install
Execute as jar : java -jar UrlEncrypter-1.0.0.1-SNAPSHOT.war
War : Deploy UrlEncrypter.war


http port 9787
